35 50
#########################....#########...#########
#.######...##############.....#######......#######
#..#####...########..#####.#...#####...#....######
#...###......######..######.....###...##.......###
##...#........######...####.....##...#####....####
###.......##..#####.....####...##...######.....#..
####.....#########...#...####......######.........
###.....#########...###...####....######...##.....
.#.......#######...##.##...###....#####...###.....
......#...#####...##...##...#.....####...###......
.....###...###...####...##.....##...#...#####.....
....#####...#...######...##...####.....#####......
.....#####.....########...#....####.....####......
..#...#####...##########...##...##.......##.....#.
..##...###..#############.####...#..#.........####
...##...#...###..##############...####........####
....##.....###...###############...####......#####
##...##...###...##################.###......######
###........#...########.##########..........######
###.....#.....########..###########.....##...#####
####....##...########...###########.....###.######
#####....#.....######.############......##########
#####.....##....#####.###########........#########
######.....##....###############.....##...########
#######.....##....#############.....####..########
########....##.....###########.....#############..
#########.......#.###########.....#############...
..########.....########..###.....###########.#....
...########....#######....#.....###########.....#.
...#.#####......#####..........#############...##.
......#.....#....###.............############...#.
...#.......###...##.....#........#############....
.####........##........##.........#############...
######........##......##.........###############..
#####.........###....####..#.....#################
300
3 42 31 29
29 12 24 35
5 7 18 15
3 37 6 14
19 36 19 37
4 3 9 4
14 27 14 38
4 3 8 24
32 15 9 7
10 41 34 32
3 44 12 3
19 37 30 1
8 20 16 41
21 8 20 37
30 1 7 7
20 40 28 25
6 5 34 13
9 46 35 14
8 41 30 30
2 2 19 24
22 15 23 39
35 14 21 12
30 30 14 39
26 16 35 18
35 26 16 45
31 26 29 2
24 7 17 1
34 10 35 9
22 13 31 17
4 41 19 24
7 31 5 31
34 50 19 7
10 48 19 36
22 13 10 33
8 25 25 10
6 8 10 30
16 7 34 29
10 34 28 11
22 12 14 14
17 2 7 19
16 32 13 47
31 22 33 49
31 50 33 9
25 36 32 50
28 13 27 48
32 6 17 35
23 34 21 38
14 26 17 41
16 41 25 34
6 23 13 30
15 12 10 39
8 32 10 5
34 19 14 38
15 5 8 32
9 7 34 18
30 47 32 50
14 48 11 30
30 15 35 32
22 8 17 17
12 16 17 16
14 36 22 14
31 25 27 49
29 32 30 29
31 31 32 3
31 21 5 3
10 23 32 33
12 23 14 25
17 1 13 50
30 3 23 41
20 11 35 27
25 17 24 35
23 40 9 1
19 37 14 44
14 5 34 32
18 40 31 15
27 16 32 21
5 21 7 50
2 28 14 1
10 39 18 9
30 22 28 31
35 21 2 43
6 10 28 33
27 30 13 48
19 40 29 14
11 31 28 45
26 15 32 23
9 19 11 9
30 2 22 14
17 45 33 17
25 41 9 18
10 3 5 44
6 35 31 15
8 34 30 15
28 29 1 27
22 6 25 33
4 45 21 36
22 36 3 42
31 3 29 23
15 45 4 45
4 8 13 25
3 9 14 4
20 10 23 39
16 40 27 32
34 20 12 28
34 8 2 26
35 26 13 25
27 18 30 27
33 50 20 14
1 29 15 33
25 35 30 13
33 49 13 48
15 41 24 16
8 20 21 40
32 5 32 6
14 27 4 20
7 32 10 28
27 10 21 38
31 5 10 49
9 25 23 6
20 8 32 30
8 18 7 35
5 5 24 14
11 4 14 35
33 23 12 47
13 13 24 8
35 7 14 26
11 29 32 15
22 12 16 11
22 8 23 15
1 39 8 26
2 30 9 25
11 11 30 2
21 11 11 49
27 30 29 25
30 16 7 49
28 31 20 43
5 37 29 48
30 23 29 48
31 5 15 44
5 8 13 5
7 7 15 31
28 11 11 35
15 41 6 30
5 29 16 45
6 24 18 35
21 8 24 16
16 46 9 25
10 40 9 6
6 22 35 8
30 1 12 10
15 26 34 26
25 18 33 26
32 3 13 3
20 43 9 7
1 39 15 44
35 11 31 28
3 21 13 48
29 1 5 35
9 40 25 36
28 24 12 45
21 23 12 48
33 17 14 14
34 17 9 22
6 29 23 13
5 35 8 26
24 40 4 3
14 5 14 44
12 38 25 16
1 39 12 14
6 8 23 34
10 31 16 6
9 9 5 22
14 41 30 12
34 7 21 40
4 45 26 34
4 43 18 15
21 36 19 44
31 15 24 37
19 8 30 5
8 49 29 46
25 15 25 18
18 10 2 10
13 26 12 2
12 2 12 30
10 8 16 44
6 5 32 5
35 32 25 34
32 22 25 34
20 40 10 48
19 14 14 2
11 5 18 10
19 42 27 50
15 35 13 48
13 37 26 10
27 16 13 28
7 33 31 30
35 20 13 14
28 14 23 14
5 3 7 42
5 44 24 42
28 11 11 3
32 49 25 12
15 5 16 3
12 15 3 9
17 35 8 18
2 2 10 48
32 15 25 15
6 7 29 45
23 13 19 41
34 13 27 10
9 5 26 34
5 29 15 7
5 29 32 8
9 46 9 50
6 29 28 12
6 50 17 2
32 29 26 11
4 4 28 45
14 26 7 20
7 24 19 36
6 34 14 40
15 46 8 4
31 15 25 17
35 11 13 47
4 28 9 41
7 46 11 28
10 45 10 49
8 6 4 41
31 22 13 39
30 28 6 9
26 16 31 4
15 36 19 6
22 36 9 32
11 3 9 19
28 33 6 44
10 1 1 40
7 9 16 34
31 17 6 13
28 12 32 47
30 13 20 10
30 14 11 17
9 5 25 16
8 50 35 32
7 5 12 25
23 10 20 44
32 9 30 2
5 31 13 15
5 14 32 2
21 11 6 5
4 36 31 46
5 23 4 42
7 21 3 43
5 8 8 20
33 27 32 29
14 27 11 50
11 50 3 21
14 44 8 43
16 8 18 40
34 32 13 14
33 19 6 5
5 35 27 11
5 12 29 25
8 24 5 14
21 38 11 36
19 4 30 13
27 50 29 25
31 26 6 24
7 50 14 4
8 4 12 25
7 23 22 7
35 13 10 22
27 50 2 11
16 16 28 25
12 39 10 45
11 2 12 47
22 7 5 5
10 3 27 16
14 4 25 42
22 15 9 7
33 50 33 20
29 48 29 45
2 43 8 42
5 7 16 44
13 48 27 13
24 10 33 28
4 42 14 35
22 6 29 2
18 16 15 2
8 49 24 33
33 6 21 36
31 11 32 23
33 12 35 13
10 23 32 50
9 7 4 12
7 46 17 17
1 41 28 15
29 26 25 16
6 50 2 11
33 13 9 40
34 20 4 36