50 30
..............................
............#.................
............#.................
##########..#.................
...###......#.................
...#........#.................
...#........#.................
...##.......#.................
...#..#.....#.................
...#..#.....#.................
...#..#.....#.................
...#..#.....#...............#.
.#.#..#.....#......######...#.
.#.#..#.#...#...............#.
.#.#..#.#...#...............#.
.#.#..#.#...#####......#......
.#.#..#.#..............#......
.#.#..#.#..............#......
.################......###....
.#.#....#..............#......
.#.#....#...#..........#......
.#......#...#..........#......
.#......#...#..........#......
.#......#...#..........##.....
.#......#...#..........#......
.#......#...#..........#......
.#......#...#..........#......
.#......#...#..........#......
.#......#..............#......
.#......#..............#......
.#......#..............#......
##################.....#......
.#######################......
.#......#.....................
.#......#.....###########.....
.#......#.....................
.#......#.....................
.#......#.....................
.#......#.....................
.#......#.....................
.#......#.....................
.#......#....#########........
.#......#..................#..
.#......#....###############..
.#......#..................#..
.#......#.#................#..
.#......#..................#..
.#......#..................#..
##........#................#..
..............................
30
47 29 5 1
4 11 21 7
1 25 5 28
17 6 1 20
7 28 41 11
17 18 50 14
38 8 43 1
45 19 6 10
21 10 3 1
40 16 12 21
22 27 48 8
31 22 10 8
14 5 20 15
50 15 15 14
4 21 48 24
12 17 21 20
14 5 17 11
8 14 2 9
39 4 17 26
33 26 28 19
3 1 45 10
12 30 22 15
11 17 16 20
7 25 47 14
15 24 23 22
44 29 2 7
19 20 30 5
4 17 36 1
12 1 6 20
43 3 37 29