50 49
.................................................
.................................................
....................................#####........
.........##################......................
...............#.#...............######..........
.................#.................#.............
...............#.#.................#.............
...............#.#.................#.............
........#......#.#...#..........#..##............
........#.....##.#.................#..........#..
........#......#.#.....#...........#.............
........#......#.#....##...........#.............
........#..##..#.#....#################..........
........#......#.#.#..##...........#...#.........
........#......#.#.#..##...##......#...#.........
........#......#.#.#..##...##......#...#.........
........#......#.#.#..##...##......#...#.........
........#......#.#.#..#....##......#.###.........
......#######################......#...##........
........#......#.#....#....##......#...#.........
.......################....##......#.#.#.........
....#..#############..#....##......#.#.#.........
....#..........#.#....#....##......#.#.#.........
....#.############....#....##......#.#...........
....#..........#.#....#....##......#.#...........
....#..........#.#....#....##......#.#...........
....#...#......#..###############################
....#......#...#......#....##......#.#...........
....#......#...#......#....##......#.#...........
....#......#...#......#..#################.......
....#......#...#......#....##......#.#...........
....#......#...#......#....##......#.#...........
....#......#...#......#....##......#.#...........
....#......#...#......#....##......#.#...........
....#..........##############......#.#...........
....#..........#...#..#....##......#.............
....#..........#......#....##......#.............
....#..........#......#....##......#.............
....#..........#...........##......#.............
....#..........#...........##......#.............
....#.#....................##......#......#......
....#......................##......#.............
....#......................#.......#.............
....#......................#.......#.............
...........#...............#.......#.............
...........................#.......#.............
######.....................#.......#.............
...................................#.............
...................................#.............
...............................................#.
300
42 49 43 15
29 14 16 35
16 15 6 15
49 8 25 31
12 42 29 34
10 41 10 11
16 31 26 15
6 30 49 26
28 31 5 40
21 34 16 47
1 41 48 20
41 42 15 45
11 26 15 34
46 24 15 46
19 31 41 49
1 12 28 6
14 25 26 17
14 17 35 37
46 14 48 17
23 10 18 3
2 6 5 46
3 21 44 41
36 17 44 18
40 11 49 27
39 45 34 35
31 46 10 28
47 17 8 13
38 10 24 33
45 33 33 46
25 7 37 39
13 49 40 7
30 25 29 24
42 10 4 45
16 27 22 27
21 49 7 49
10 17 37 26
44 42 15 8
11 47 38 43
24 32 8 47
47 10 34 20
13 47 20 37
44 7 10 49
16 32 18 45
2 17 41 2
35 47 8 8
4 44 11 21
12 49 1 18
4 3 25 39
14 31 7 5
18 26 33 3
50 9 3 43
46 32 8 11
46 17 14 32
6 7 42 26
27 7 14 44
47 32 2 14
39 49 37 9
13 1 21 32
34 27 11 17
18 8 40 42
43 34 24 26
33 9 42 43
17 19 32 33
37 35 20 4
46 30 26 33
18 41 17 30
2 2 23 20
31 41 19 35
26 7 14 38
16 32 25 6
12 39 25 4
2 48 48 38
31 19 8 24
25 2 25 41
5 19 43 23
9 43 25 45
6 19 47 7
25 14 28 49
6 31 41 13
41 25 43 3
40 24 33 19
44 48 34 11
4 43 10 25
49 47 1 30
50 24 44 18
3 19 49 44
25 32 36 31
23 37 10 20
6 9 2 26
33 35 1 19
41 13 38 41
49 18 23 39
38 1 24 42
45 23 32 20
42 26 11 23
3 34 17 34
11 25 50 31
20 46 6 42
29 34 40 46
37 21 39 9
10 33 31 31
41 41 49 35
30 20 31 9
23 49 45 42
37 32 32 18
23 1 48 41
6 44 21 3
27 11 49 6
29 34 46 30
42 6 43 20
38 9 16 46
10 41 29 30
6 44 23 17
43 37 31 35
46 49 38 30
3 6 38 15
48 31 21 47
28 34 11 20
50 44 27 12
29 49 15 30
35 35 10 19
45 47 46 8
48 28 29 40
17 10 15 39
29 8 15 32
28 47 10 5
50 39 47 26
3 4 27 3
40 40 32 34
29 21 22 6
40 11 4 48
12 32 45 42
10 28 6 6
4 9 21 3
18 41 15 14
22 6 42 47
29 4 14 13
1 11 42 21
33 3 3 2
33 4 43 13
42 40 32 33
21 2 15 33
22 3 13 6
42 45 43 19
48 16 37 33
24 24 47 37
2 34 17 32
8 40 36 30
12 33 11 39
41 4 42 9
18 19 36 41
44 39 27 2
18 2 16 32
45 8 15 11
19 45 49 42
21 44 42 33
11 28 1 28
27 12 34 15
32 30 5 4
47 13 5 17
20 5 1 14
2 16 1 27
42 19 9 4
5 15 29 35
15 10 36 47
1 4 31 20
13 21 44 19
6 20 39 20
5 41 21 31
43 26 18 25
5 29 44 30
12 3 32 22
45 32 18 2
1 17 29 35
39 44 42 20
21 35 36 24
44 26 20 5
14 3 39 46
48 33 10 7
38 39 23 41
41 48 9 2
48 3 3 1
11 25 9 29
4 46 19 1
28 1 21 46
2 34 33 9
37 49 7 33
1 3 40 34
42 43 26 12
31 39 15 13
9 41 2 2
2 35 48 16
29 47 12 21
11 33 3 43
24 34 11 27
9 14 31 43
36 2 12 19
1 21 46 48
11 44 29 4
16 49 1 49
14 43 3 20
36 34 42 39
28 4 13 49
1 47 8 28
4 41 33 42
25 1 13 15
5 8 15 22
48 44 26 39
9 19 17 46
11 17 14 29
10 22 28 34
12 13 48 11
16 19 50 35
26 19 49 33
7 22 47 21
5 10 16 45
44 31 6 21
25 27 43 45
22 6 31 44
29 10 34 4
23 39 28 17
36 6 10 33
10 48 20 15
23 47 39 48
34 43 50 49
33 40 45 1
6 44 29 25
6 8 38 31
7 2 44 24
35 44 37 17
19 46 3 11
26 22 8 39
18 33 37 1
10 2 11 3
8 41 46 15
48 48 14 15
7 46 27 10
12 22 41 32
9 47 25 39
1 19 16 27
32 7 31 26
5 23 19 45
14 25 9 34
34 8 48 2
24 2 30 13
44 13 36 8
40 17 19 4
44 32 23 14
23 42 23 24
46 16 5 28
6 49 37 17
16 35 11 20
47 16 12 32
3 2 13 10
12 13 25 8
1 43 18 47
20 11 29 42
4 46 30 7
16 41 42 13
44 4 30 9
6 29 9 28
46 48 33 20
22 34 25 24
34 34 14 37
10 49 18 46
21 4 41 1
26 21 36 26
46 25 17 4
9 4 49 42
24 21 16 2
37 22 23 32
29 6 29 27
45 37 36 43
31 18 26 34
28 13 22 37
22 25 32 44
37 14 45 23
39 40 20 8
19 39 23 2
39 20 6 43
26 25 14 12
45 5 20 48
17 1 50 25
30 10 12 14
33 13 25 3
20 1 49 47
38 39 23 3
13 46 1 32
20 21 31 20
5 20 9 32
38 9 15 11
49 33 17 5
10 25 3 44
15 32 25 4
49 37 12 13
37 12 45 32
6 8 15 15
48 28 41 34
2 40 10 28
18 21 44 2