50 30
...##.........................
.....#........................
.....#.................#......
.....#.................#......
..#.##..#..............#......
.....#..#..............#......
.....#..#....#......#..#......
.....#..#...........#..#......
..#############.....#..#....#.
...#.#..#.......######.#......
...#.########.....#.#..#......
...#.#..#.........###..#......
...#.#..#..........##..#......
############.......##..#.....#
...#.#..#..........##..#.....#
..##.#..#..........##..#.....#
..##.#..#..........#######...#
..##.#..#..........##..#.....#
..##.#..#..........#...#.....#
..##.#..#..........#...#.....#
..##.#..#..#############.....#
..##....#..........#...#.....#
..##....#..........#...#.....#
..##..#.#..........#...#.....#
..##..#.#..........#...#.....#
..##..#.#..........#...#.....#
..##..#.#..........#...####..#
..##..#####........#...#..#..#
..##..#.#..........#...#..#..#
...#..#.#..........#...#..#..#
...#..#.#.....#....#.#....#..#
...#..#.#.....#.#.#####...#..#
...#..#.#..#..#.#..#......#..#
...#..#.#.....#.#..#......#..#
...#..#.#.....#.#..#......#..#
...#..#.#.....#.#..#.........#
####..#.##....#.#..#.........#
#..#..#.##....#.#..#.........#
#..#..#.##....#.#..#.........#
#..#..#.#...#####..#.........#
#..#..#.#.....#....#.........#
#..#.##.#.....#..########....#
#..#.##.......#....#.........#
#..#..#.......#....#.........#
#..#..#............#.........#
#..#...#...........#.........#
#########################....#
#............................#
.............................#
................#............#
300
23 26 23 2
29 10 43 19
24 12 49 22
18 8 8 30
7 22 14 29
30 22 49 27
46 16 8 1
29 6 46 18
3 10 11 15
36 25 2 15
31 12 31 26
43 10 35 18
15 10 21 29
1 18 25 2
8 8 42 17
17 12 37 21
44 12 5 20
3 1 36 24
21 2 8 27
27 17 26 17
10 1 30 19
46 29 49 4
45 10 17 12
33 11 43 22
5 22 15 8
49 17 16 25
49 19 39 19
50 11 49 28
11 16 12 18
30 11 41 16
4 13 44 11
12 27 34 10
6 13 23 15
42 29 33 16
49 8 48 11
49 19 5 22
4 7 43 3
39 26 8 15
40 26 6 1
36 24 38 14
24 19 35 23
13 16 11 1
49 21 20 23
40 12 26 10
17 27 5 20
6 30 15 18
3 17 13 11
42 3 42 27
11 27 3 1
31 5 15 12
46 21 42 11
23 27 47 29
20 16 11 26
47 28 45 16
50 16 25 6
44 3 8 12
26 1 20 22
42 3 50 9
49 14 34 13
13 23 14 26
10 8 23 26
18 14 19 22
24 18 38 6
23 17 33 18
32 10 31 11
1 27 44 10
5 4 6 16
49 19 11 25
49 19 8 13
50 15 8 22
26 16 23 10
9 2 37 29
4 2 25 27
19 8 38 5
13 23 33 25
30 8 50 1
45 3 13 7
7 19 29 11
36 3 46 16
36 26 49 5
14 27 32 28
31 8 3 17
35 11 5 28
41 22 4 28
38 19 42 28
29 8 22 22
5 4 48 27
16 26 41 24
12 18 30 19
13 23 44 29
12 12 21 27
15 15 31 16
45 6 46 2
6 4 35 8
40 12 1 23
27 22 30 19
1 19 6 2
10 10 46 6
44 12 15 29
5 19 14 14
11 18 41 28
25 23 10 16
22 15 27 18
31 3 4 21
12 12 3 12
41 19 30 28
11 17 16 28
3 15 34 28
15 14 11 22
2 11 2 27
23 18 15 23
1 26 8 28
40 26 7 26
45 15 28 2
6 22 29 26
19 29 29 22
37 21 29 12
28 2 49 15
30 18 41 14
39 23 18 19
25 29 3 20
8 19 38 11
48 6 20 14
48 28 34 1
3 26 49 22
31 19 11 1
5 22 16 5
12 12 1 16
6 27 34 24
15 12 38 5
3 11 3 30
33 10 9 30
4 21 17 16
37 26 16 25
34 13 46 28
36 8 41 18
48 5 13 3
44 14 49 22
34 25 29 11
41 2 23 17
30 14 27 21
10 12 34 10
44 18 9 16
26 6 22 7
3 12 3 23
19 23 23 5
42 12 11 1
46 17 2 18
34 2 26 29
2 1 28 28
20 26 1 14
18 16 48 29
31 19 4 29
46 13 25 29
28 28 23 23
46 6 16 7
7 20 48 5
3 15 35 25
39 14 39 25
5 30 26 18
3 30 42 26
18 16 8 12
50 12 6 28
16 18 4 5
49 21 14 18
15 1 21 2
22 23 38 12
44 10 26 13
49 22 25 8
15 10 32 24
30 18 29 16
26 23 26 11
17 5 44 10
31 17 24 15
44 21 38 25
10 2 31 29
33 10 15 22
39 27 27 13
24 21 33 11
2 8 30 3
34 18 46 9
49 2 34 3
22 17 8 10
4 26 27 18
31 25 12 16
49 5 16 18
35 18 49 14
33 13 27 14
25 8 30 13
26 1 3 12
12 7 14 28
34 22 46 26
32 11 24 18
6 2 40 8
19 21 7 11
20 14 46 10
29 29 44 28
49 25 2 19
12 14 14 28
31 26 19 25
3 29 35 6
30 26 18 14
21 8 9 25
18 7 1 27
28 13 28 1
46 27 10 10
44 25 2 28
44 27 32 10
14 14 7 25
12 16 8 30
41 21 19 27
6 25 23 21
1 14 22 17
5 8 36 8
8 27 7 22
48 13 19 15
20 11 45 14
1 10 27 18
37 13 6 4
30 12 38 22
24 14 31 8
32 26 15 5
24 15 15 23
17 10 25 8
8 20 22 21
39 8 20 28
48 7 9 27
42 12 1 12
45 8 11 27
25 29 17 27
2 30 13 25
50 11 15 22
49 15 26 21
13 11 34 1
18 25 30 19
26 15 19 1
6 28 44 11
7 3 13 29
8 23 20 5
25 25 18 15
23 29 28 26
48 28 2 7
36 8 6 19
25 1 19 18
18 17 42 11
32 25 12 7
50 21 43 11
14 26 39 18
37 14 6 19
7 23 6 19
8 20 27 13
6 30 32 14
36 14 13 15
48 12 6 16
46 9 19 18
48 27 46 18
46 27 1 25
37 26 49 1
8 16 24 15
22 13 46 17
13 2 47 28
34 23 35 2
31 23 4 7
44 9 25 22
47 27 25 21
6 28 1 30
22 11 12 14
15 26 5 2
46 25 18 28
7 22 40 2
31 18 2 4
38 18 13 2
44 9 43 27
39 5 18 22
8 7 10 3
19 16 19 13
30 17 26 18
23 2 28 15
50 28 50 23
44 22 2 11
34 8 48 13
17 27 1 10
23 18 4 16
18 23 6 15
38 28 29 22
34 14 3 27
20 27 25 15
26 28 36 11
11 27 34 1
16 17 23 25
46 24 3 7
15 18 3 30
34 11 41 12
41 29 37 21
29 16 28 26
50 28 18 19
19 16 32 29
46 25 20 16
19 10 23 12
8 3 28 19